data_image0
_chemical_formula_structural       Zr2Tl4S6
_chemical_formula_sum              "Zr2 Tl4 S6"
_cell_length_a       3.9520991112014996
_cell_length_b       7.749986290068777
_cell_length_c       10.131742065150563
_cell_angle_alpha    88.03286600642026
_cell_angle_beta     90.76261667369751
_cell_angle_gamma    89.93663845137874

_space_group_name_H-M_alt    "P 1"
_space_group_IT_number       1

loop_
  _space_group_symop_operation_xyz
  'x, y, z'

loop_
  _atom_site_type_symbol
  _atom_site_label
  _atom_site_symmetry_multiplicity
  _atom_site_fract_x
  _atom_site_fract_y
  _atom_site_fract_z
  _atom_site_occupancy
  Zr  Zr1       1.0  0.3292267322540283  0.37485769391059875  0.26489824056625366  1.0000
  Zr  Zr2       1.0  0.8295634984970093  0.2250589281320572  0.5713341236114502  1.0000
  Tl  Tl1       1.0  0.3291696608066559  0.7260603904724122  0.6136788725852967  1.0000
  Tl  Tl2       1.0  0.829280436038971  0.874835193157196  0.26167681813240046  1.0000
  Tl  Tl3       1.0  0.3290539085865021  0.041141834110021584  0.9496808052062988  1.0000
  Tl  Tl4       1.0  0.8289504647254944  0.5441879034042358  0.9130975008010864  1.0000
  S   S1        1.0  0.32895755767822266  0.6516313552856445  0.12180057913064958  1.0000
  S   S2        1.0  0.8288207650184631  0.9690267443656921  0.7246628403663635  1.0000
  S   S3        1.0  0.3286638557910919  0.34200310707092285  0.7066771984100342  1.0000
  S   S4        1.0  0.8284386992454529  0.2529994249343872  0.12397538870573044  1.0000
  S   S5        1.0  0.32874080538749695  0.13116583228111267  0.43274518847465515  1.0000
  S   S6        1.0  0.8281526565551758  0.4919121563434601  0.41414424777030945  1.0000
