data_image0
_chemical_formula_structural       Ce2In8Co
_chemical_formula_sum              "Ce2 In8 Co1"
_cell_length_a       4.598434270917134
_cell_length_b       4.620455043292358
_cell_length_c       12.429179579750317
_cell_angle_alpha    89.96887877456504
_cell_angle_beta     89.98446824270872
_cell_angle_gamma    90.15134613356402

_space_group_name_H-M_alt    "P 1"
_space_group_IT_number       1

loop_
  _space_group_symop_operation_xyz
  'x, y, z'

loop_
  _atom_site_type_symbol
  _atom_site_label
  _atom_site_symmetry_multiplicity
  _atom_site_fract_x
  _atom_site_fract_y
  _atom_site_fract_z
  _atom_site_occupancy
  Ce  Ce1       1.0  0.9681978821754456  0.9480046629905702  0.5707998871803283  1.0000
  Ce  Ce2       1.0  0.9673248529434204  0.9495043754577637  0.18568010628223416  1.0000
  In  In1       1.0  0.466641664505005  0.9514209032058715  0.37791916728019714  1.0000
  In  In2       1.0  0.4665568768978119  0.949491858482361  0.7568490505218505  1.0000
  In  In3       1.0  0.9672322273254395  0.44968417286872864  0.37917158007621754  1.0000
  In  In4       1.0  0.9680054187774658  0.45010286569595337  0.7572341561317442  1.0000
  In  In5       1.0  0.4673982262611389  0.4510030448436737  0.18711099028587339  1.0000
  In  In6       1.0  0.46721822023391724  0.45019918680191046  0.573792815208435  1.0000
  In  In7       1.0  0.967667818069458  0.45129689574241644  0.9964375495910645  1.0000
  In  In8       1.0  0.46777987480163574  0.9486922621726989  0.9964845776557922  1.0000
  Co  Co1       1.0  0.965868353843689  0.9506458640098572  0.8789097666740416  1.0000
